Circuit: * C:\Users\Harshdeep\OneDrive\Desktop\jk\Analog Lab\2021EEB1286\22nm\Cascode_amplifier.asc

WARNING: Node N001 is floating.

WARNING: Less than two connections to node n001.  This node is used by m1.
Warning: toxe, toxp and dtox all given and toxe != toxp + dtox; dtox ignored.
Direct Newton iteration for .op point succeeded.

Date: Tue Nov  7 22:56:57 2023
Total elapsed time: 0.355 seconds.

tnom = 27
temp = 27
method = trap
totiter = 8
traniter = 0
tranpoints = 0
accept = 0
rejected = 0
matrix size = 30
fillins = 2
solver = Normal
Avg thread counts: 8.0/0.0/8.0/1.1
Matrix Compiler1:     173 opcodes
Matrix Compiler2: 3.12 KB object code size
