Circuit: * C:\Users\Harshdeep\OneDrive\Desktop\jk\Analog Lab\2021EEB1286\180nm\CascodeAmplifier.asc

Ignoring BSIM parameter XL
Ignoring BSIM parameter XW
Ignoring BSIM parameter XL
Ignoring BSIM parameter XW
WARNING: Node N001 is floating.

WARNING: Less than two connections to node n001.  This node is used by m1.
Warning: Pd = 0 is less than W.
Warning: Ps = 0 is less than W.
Warning: Pd = 0 is less than W.
Warning: Ps = 0 is less than W.
Direct Newton iteration for .op point succeeded.

Date: Tue Nov  7 22:56:16 2023
Total elapsed time: 0.202 seconds.

tnom = 27
temp = 27
method = trap
totiter = 30
traniter = 0
tranpoints = 0
accept = 0
rejected = 0
matrix size = 14
fillins = 0
solver = Normal
Avg thread counts: 8.0/0.0/8.0/1.1
Matrix Compiler1:      33 opcodes
Matrix Compiler2: 1.04 KB object code size
